// Author Paulo M. De Oliveira pm.deoliveiradejes@uniandes.edu.co March 15, 2018
! Kersting NEV Test system
! n=1 SHORT-CIRCUIT ANALYSIS
! Full NEV approach (considering tower footings)
clear
New circuit.SOURCE_1    bus1=1.1  bus2=1.4 basekV=66.39528 pu=1 angle=0  Z1=[.000000200, 8.73333]   phase=1
New Vsource.SOURCE_2 bus1=1.2  bus2=1.4 basekV=66.39528 pu=1 angle=-120 Z1=[.000000200, 8.73333]   phase=1
New Vsource.SOURCE_3 bus1=1.3 bus2=1.4 basekV=66.39528 pu=1 angle=120 Z1=[.000000200, 8.73333]  phase=1
set earthmodel=carson  
! **** DEFINE WIRE DATA line 115
new wiredata.conductor Runits=mi Rac=0.306 GMRunits=ft GMRac=0.0244  Radunits=in Diam=0.742 !33600 ACSR 30 str
new wiredata.neutral   Runits=mi Rac=7.71 GMRunits=ft GMRac=0.000183  Radunits=in  Diam=0.563 ! 4/0 ACSR 6/1
! **** DEFINE LINE GEOMETRY line 115
new linegeometry.4wire nconds=4 nphases=3 reduce=no 
~ cond=1 wire=conductor units=ft x=-6   h=44.21 
~ cond=2 wire=conductor units=ft x=+6  h=40 
~ cond=3 wire=conductor units=ft x=+6    h=48.17 
~ cond=4 wire=neutral     units=ft x=0.75    h=57.91 
! ****115 KV LINE!
new line.line1 geometry=4wire length=0.1 units=mi bus1=1.1.2.3.4 bus2=2.1.2.3.4 Rho=265
new line.line2 geometry=4wire length=0.1 units=mi bus1=2.1.2.3.4 bus2=3.1.2.3.4 Rho=265
new line.line3 geometry=4wire length=0.1 units=mi bus1=3.1.2.3.4 bus2=4.1.2.3.4 Rho=265
new line.line4 geometry=4wire length=0.1 units=mi bus1=4.1.2.3.4 bus2=5.1.2.3.4 Rho=265
new line.line5 geometry=4wire length=0.1 units=mi bus1=5.1.2.3.4 bus2=6.1.2.3.4 Rho=265
new line.line6 geometry=4wire length=0.1 units=mi bus1=6.1.2.3.4 bus2=7.1.2.3.4 Rho=265
new line.line7 geometry=4wire length=0.1 units=mi bus1=7.1.2.3.4 bus2=8.1.2.3.4 Rho=265
new line.line8 geometry=4wire length=0.1 units=mi bus1=8.1.2.3.4 bus2=9.1.2.3.4 Rho=265
new line.line9 geometry=4wire length=0.1 units=mi bus1=9.1.2.3.4 bus2=10.1.2.3.4 Rho=265
new line.line10 geometry=4wire length=0.1 units=mi bus1=10.1.2.3.4 bus2=11.1.2.3.4 Rho=265
new line.line11 geometry=4wire length=0.1 units=mi bus1=11.1.2.3.4 bus2=12.1.2.3.4 Rho=265
new line.line12 geometry=4wire length=0.1 units=mi bus1=12.1.2.3.4 bus2=13.1.2.3.4 Rho=265
new line.line13 geometry=4wire length=0.1 units=mi bus1=13.1.2.3.4 bus2=14.1.2.3.4 Rho=265
new line.line14 geometry=4wire length=0.1 units=mi bus1=14.1.2.3.4 bus2=15.1.2.3.4 Rho=265
new line.line15 geometry=4wire length=0.1 units=mi bus1=15.1.2.3.4 bus2=16.1.2.3.4 Rho=265
new line.line16 geometry=4wire length=0.1 units=mi bus1=16.1.2.3.4 bus2=17.1.2.3.4 Rho=265
new line.line17 geometry=4wire length=0.1 units=mi bus1=17.1.2.3.4 bus2=18.1.2.3.4 Rho=265
new line.line18 geometry=4wire length=0.1 units=mi bus1=18.1.2.3.4 bus2=19.1.2.3.4 Rho=265
new line.line19 geometry=4wire length=0.1 units=mi bus1=19.1.2.3.4 bus2=20.1.2.3.4 Rho=265
new line.line20 geometry=4wire length=0.1 units=mi bus1=20.1.2.3.4 bus2=21.1.2.3.4 Rho=265
new line.line21 geometry=4wire length=0.1 units=mi bus1=21.1.2.3.4 bus2=22.1.2.3.4 Rho=265
new line.line22 geometry=4wire length=0.1 units=mi bus1=22.1.2.3.4 bus2=23.1.2.3.4 Rho=265
new line.line23 geometry=4wire length=0.1 units=mi bus1=23.1.2.3.4 bus2=24.1.2.3.4 Rho=265
new line.line24 geometry=4wire length=0.1 units=mi bus1=24.1.2.3.4 bus2=25.1.2.3.4 Rho=265
new line.line25 geometry=4wire length=0.1 units=mi bus1=25.1.2.3.4 bus2=26.1.2.3.4 Rho=265
new line.line26 geometry=4wire length=0.1 units=mi bus1=26.1.2.3.4 bus2=27.1.2.3.4 Rho=265
new line.line27 geometry=4wire length=0.1 units=mi bus1=27.1.2.3.4 bus2=28.1.2.3.4 Rho=265
new line.line28 geometry=4wire length=0.1 units=mi bus1=28.1.2.3.4 bus2=29.1.2.3.4 Rho=265
new line.line29 geometry=4wire length=0.1 units=mi bus1=29.1.2.3.4 bus2=30.1.2.3.4 Rho=265
new line.line30 geometry=4wire length=0.1 units=mi bus1=30.1.2.3.4 bus2=31.1.2.3.4 Rho=265
new line.line31 geometry=4wire length=0.1 units=mi bus1=31.1.2.3.4 bus2=32.1.2.3.4 Rho=265
new line.line32 geometry=4wire length=0.1 units=mi bus1=32.1.2.3.4 bus2=33.1.2.3.4 Rho=265
new line.line33 geometry=4wire length=0.1 units=mi bus1=33.1.2.3.4 bus2=34.1.2.3.4 Rho=265
new line.line34 geometry=4wire length=0.1 units=mi bus1=34.1.2.3.4 bus2=35.1.2.3.4 Rho=265
new line.line35 geometry=4wire length=0.1 units=mi bus1=35.1.2.3.4 bus2=36.1.2.3.4 Rho=265
new line.line36 geometry=4wire length=0.1 units=mi bus1=36.1.2.3.4 bus2=37.1.2.3.4 Rho=265
new line.line37 geometry=4wire length=0.1 units=mi bus1=37.1.2.3.4 bus2=38.1.2.3.4 Rho=265
new line.line38 geometry=4wire length=0.1 units=mi bus1=38.1.2.3.4 bus2=39.1.2.3.4 Rho=265
new line.line39 geometry=4wire length=0.1 units=mi bus1=39.1.2.3.4 bus2=40.1.2.3.4 Rho=265
new line.line40 geometry=4wire length=0.1 units=mi bus1=40.1.2.3.4 bus2=41.1.2.3.4 Rho=265
new line.line41 geometry=4wire length=0.1 units=mi bus1=41.1.2.3.4 bus2=42.1.2.3.4 Rho=265
new line.line42 geometry=4wire length=0.1 units=mi bus1=42.1.2.3.4 bus2=43.1.2.3.4 Rho=265
new line.line43 geometry=4wire length=0.1 units=mi bus1=43.1.2.3.4 bus2=44.1.2.3.4 Rho=265
new line.line44 geometry=4wire length=0.1 units=mi bus1=44.1.2.3.4 bus2=45.1.2.3.4 Rho=265
new line.line45 geometry=4wire length=0.1 units=mi bus1=45.1.2.3.4 bus2=46.1.2.3.4 Rho=265
new line.line46 geometry=4wire length=0.1 units=mi bus1=46.1.2.3.4 bus2=47.1.2.3.4 Rho=265
new line.line47 geometry=4wire length=0.1 units=mi bus1=47.1.2.3.4 bus2=48.1.2.3.4 Rho=265
new line.line48 geometry=4wire length=0.1 units=mi bus1=48.1.2.3.4 bus2=49.1.2.3.4 Rho=265
new line.line49 geometry=4wire length=0.1 units=mi bus1=49.1.2.3.4 bus2=50.1.2.3.4 Rho=265
new line.line50 geometry=4wire length=0.1 units=mi bus1=50.1.2.3.4 bus2=51.1.2.3.4 Rho=265
new line.line51 geometry=4wire length=0.1 units=mi bus1=51.1.2.3.4 bus2=52.1.2.3.4 Rho=265
new line.line52 geometry=4wire length=0.1 units=mi bus1=52.1.2.3.4 bus2=53.1.2.3.4 Rho=265
new line.line53 geometry=4wire length=0.1 units=mi bus1=53.1.2.3.4 bus2=54.1.2.3.4 Rho=265
new line.line54 geometry=4wire length=0.1 units=mi bus1=54.1.2.3.4 bus2=55.1.2.3.4 Rho=265
new line.line55 geometry=4wire length=0.1 units=mi bus1=55.1.2.3.4 bus2=56.1.2.3.4 Rho=265
new line.line56 geometry=4wire length=0.1 units=mi bus1=56.1.2.3.4 bus2=57.1.2.3.4 Rho=265
new line.line57 geometry=4wire length=0.1 units=mi bus1=57.1.2.3.4 bus2=58.1.2.3.4 Rho=265
new line.line58 geometry=4wire length=0.1 units=mi bus1=58.1.2.3.4 bus2=59.1.2.3.4 Rho=265
new line.line59 geometry=4wire length=0.1 units=mi bus1=59.1.2.3.4 bus2=60.1.2.3.4 Rho=265
new line.line60 geometry=4wire length=0.1 units=mi bus1=60.1.2.3.4 bus2=61.1.2.3.4 Rho=265
new line.line61 geometry=4wire length=0.1 units=mi bus1=61.1.2.3.4 bus2=62.1.2.3.4 Rho=265
new line.line62 geometry=4wire length=0.1 units=mi bus1=62.1.2.3.4 bus2=63.1.2.3.4 Rho=265
new line.line63 geometry=4wire length=0.1 units=mi bus1=63.1.2.3.4 bus2=64.1.2.3.4 Rho=265
new line.line64 geometry=4wire length=0.1 units=mi bus1=64.1.2.3.4 bus2=65.1.2.3.4 Rho=265
new line.line65 geometry=4wire length=0.1 units=mi bus1=65.1.2.3.4 bus2=66.1.2.3.4 Rho=265
new line.line66 geometry=4wire length=0.1 units=mi bus1=66.1.2.3.4 bus2=67.1.2.3.4 Rho=265
new line.line67 geometry=4wire length=0.1 units=mi bus1=67.1.2.3.4 bus2=68.1.2.3.4 Rho=265
new line.line68 geometry=4wire length=0.1 units=mi bus1=68.1.2.3.4 bus2=69.1.2.3.4 Rho=265
new line.line69 geometry=4wire length=0.1 units=mi bus1=69.1.2.3.4 bus2=70.1.2.3.4 Rho=265
new line.line70 geometry=4wire length=0.1 units=mi bus1=70.1.2.3.4 bus2=71.1.2.3.4 Rho=265
new line.line71 geometry=4wire length=0.1 units=mi bus1=71.1.2.3.4 bus2=72.1.2.3.4 Rho=265
new line.line72 geometry=4wire length=0.1 units=mi bus1=72.1.2.3.4 bus2=73.1.2.3.4 Rho=265
new line.line73 geometry=4wire length=0.1 units=mi bus1=73.1.2.3.4 bus2=74.1.2.3.4 Rho=265
new line.line74 geometry=4wire length=0.1 units=mi bus1=74.1.2.3.4 bus2=75.1.2.3.4 Rho=265
new line.line75 geometry=4wire length=0.1 units=mi bus1=75.1.2.3.4 bus2=76.1.2.3.4 Rho=265
new line.line76 geometry=4wire length=0.1 units=mi bus1=76.1.2.3.4 bus2=77.1.2.3.4 Rho=265
new line.line77 geometry=4wire length=0.1 units=mi bus1=77.1.2.3.4 bus2=78.1.2.3.4 Rho=265
new line.line78 geometry=4wire length=0.1 units=mi bus1=78.1.2.3.4 bus2=79.1.2.3.4 Rho=265
new line.line79 geometry=4wire length=0.1 units=mi bus1=79.1.2.3.4 bus2=80.1.2.3.4 Rho=265
new line.line80 geometry=4wire length=0.1 units=mi bus1=80.1.2.3.4 bus2=81.1.2.3.4 Rho=265
new line.line81 geometry=4wire length=0.1 units=mi bus1=81.1.2.3.4 bus2=82.1.2.3.4 Rho=265
new line.line82 geometry=4wire length=0.1 units=mi bus1=82.1.2.3.4 bus2=83.1.2.3.4 Rho=265
new line.line83 geometry=4wire length=0.1 units=mi bus1=83.1.2.3.4 bus2=84.1.2.3.4 Rho=265
new line.line84 geometry=4wire length=0.1 units=mi bus1=84.1.2.3.4 bus2=85.1.2.3.4 Rho=265
new line.line85 geometry=4wire length=0.1 units=mi bus1=85.1.2.3.4 bus2=86.1.2.3.4 Rho=265
new line.line86 geometry=4wire length=0.1 units=mi bus1=86.1.2.3.4 bus2=87.1.2.3.4 Rho=265
new line.line87 geometry=4wire length=0.1 units=mi bus1=87.1.2.3.4 bus2=88.1.2.3.4 Rho=265
new line.line88 geometry=4wire length=0.1 units=mi bus1=88.1.2.3.4 bus2=89.1.2.3.4 Rho=265
new line.line89 geometry=4wire length=0.1 units=mi bus1=89.1.2.3.4 bus2=90.1.2.3.4 Rho=265
new line.line90 geometry=4wire length=0.1 units=mi bus1=90.1.2.3.4 bus2=91.1.2.3.4 Rho=265
new line.line91 geometry=4wire length=0.1 units=mi bus1=91.1.2.3.4 bus2=92.1.2.3.4 Rho=265
new line.line92 geometry=4wire length=0.1 units=mi bus1=92.1.2.3.4 bus2=93.1.2.3.4 Rho=265
new line.line93 geometry=4wire length=0.1 units=mi bus1=93.1.2.3.4 bus2=94.1.2.3.4 Rho=265
new line.line94 geometry=4wire length=0.1 units=mi bus1=94.1.2.3.4 bus2=95.1.2.3.4 Rho=265
new line.line95 geometry=4wire length=0.1 units=mi bus1=95.1.2.3.4 bus2=96.1.2.3.4 Rho=265
new line.line96 geometry=4wire length=0.1 units=mi bus1=96.1.2.3.4 bus2=97.1.2.3.4 Rho=265
new line.line97 geometry=4wire length=0.1 units=mi bus1=97.1.2.3.4 bus2=98.1.2.3.4 Rho=265
new line.line98 geometry=4wire length=0.1 units=mi bus1=98.1.2.3.4 bus2=99.1.2.3.4 Rho=265
new line.line99 geometry=4wire length=0.1 units=mi bus1=99.1.2.3.4 bus2=100.1.2.3.4 Rho=265
new line.line100 geometry=4wire length=0.1 units=mi bus1=100.1.2.3.4 bus2=101.1.2.3.4 Rho=265
new line.line101 geometry=4wire length=0.1 units=mi bus1=101.1.2.3.4 bus2=102.1.2.3.4 Rho=265
new line.line102 geometry=4wire length=0.1 units=mi bus1=102.1.2.3.4 bus2=103.1.2.3.4 Rho=265
new line.line103 geometry=4wire length=0.1 units=mi bus1=103.1.2.3.4 bus2=104.1.2.3.4 Rho=265
new line.line104 geometry=4wire length=0.1 units=mi bus1=104.1.2.3.4 bus2=105.1.2.3.4 Rho=265
new line.line105 geometry=4wire length=0.1 units=mi bus1=105.1.2.3.4 bus2=106.1.2.3.4 Rho=265
new line.line106 geometry=4wire length=0.1 units=mi bus1=106.1.2.3.4 bus2=107.1.2.3.4 Rho=265
new line.line107 geometry=4wire length=0.1 units=mi bus1=107.1.2.3.4 bus2=108.1.2.3.4 Rho=265
new line.line108 geometry=4wire length=0.1 units=mi bus1=108.1.2.3.4 bus2=109.1.2.3.4 Rho=265
new line.line109 geometry=4wire length=0.1 units=mi bus1=109.1.2.3.4 bus2=110.1.2.3.4 Rho=265
new line.line110 geometry=4wire length=0.1 units=mi bus1=110.1.2.3.4 bus2=111.1.2.3.4 Rho=265
new line.line111 geometry=4wire length=0.1 units=mi bus1=111.1.2.3.4 bus2=112.1.2.3.4 Rho=265
new line.line112 geometry=4wire length=0.1 units=mi bus1=112.1.2.3.4 bus2=113.1.2.3.4 Rho=265
new line.line113 geometry=4wire length=0.1 units=mi bus1=113.1.2.3.4 bus2=114.1.2.3.4 Rho=265
new line.line114 geometry=4wire length=0.1 units=mi bus1=114.1.2.3.4 bus2=115.1.2.3.4 Rho=265
new line.line115 geometry=4wire length=0.1 units=mi bus1=115.1.2.3.4 bus2=116.1.2.3.4 Rho=265
new line.line116 geometry=4wire length=0.1 units=mi bus1=116.1.2.3.4 bus2=117.1.2.3.4 Rho=265
new line.line117 geometry=4wire length=0.1 units=mi bus1=117.1.2.3.4 bus2=118.1.2.3.4 Rho=265
new line.line118 geometry=4wire length=0.1 units=mi bus1=118.1.2.3.4 bus2=119.1.2.3.4 Rho=265
new line.line119 geometry=4wire length=0.1 units=mi bus1=119.1.2.3.4 bus2=120.1.2.3.4 Rho=265
new line.line120 geometry=4wire length=0.1 units=mi bus1=120.1.2.3.4 bus2=121.1.2.3.4 Rho=265
new line.line121 geometry=4wire length=0.1 units=mi bus1=121.1.2.3.4 bus2=122.1.2.3.4 Rho=265
new line.line122 geometry=4wire length=0.1 units=mi bus1=122.1.2.3.4 bus2=123.1.2.3.4 Rho=265
new line.line123 geometry=4wire length=0.1 units=mi bus1=123.1.2.3.4 bus2=124.1.2.3.4 Rho=265
new line.line124 geometry=4wire length=0.1 units=mi bus1=124.1.2.3.4 bus2=125.1.2.3.4 Rho=265
new line.line125 geometry=4wire length=0.1 units=mi bus1=125.1.2.3.4 bus2=126.1.2.3.4 Rho=265
new line.line126 geometry=4wire length=0.1 units=mi bus1=126.1.2.3.4 bus2=127.1.2.3.4 Rho=265
new line.line127 geometry=4wire length=0.1 units=mi bus1=127.1.2.3.4 bus2=128.1.2.3.4 Rho=265
new line.line128 geometry=4wire length=0.1 units=mi bus1=128.1.2.3.4 bus2=129.1.2.3.4 Rho=265
new line.line129 geometry=4wire length=0.1 units=mi bus1=129.1.2.3.4 bus2=130.1.2.3.4 Rho=265
new line.line130 geometry=4wire length=0.1 units=mi bus1=130.1.2.3.4 bus2=131.1.2.3.4 Rho=265
new line.line131 geometry=4wire length=0.1 units=mi bus1=131.1.2.3.4 bus2=132.1.2.3.4 Rho=265
new line.line132 geometry=4wire length=0.1 units=mi bus1=132.1.2.3.4 bus2=133.1.2.3.4 Rho=265
new line.line133 geometry=4wire length=0.1 units=mi bus1=133.1.2.3.4 bus2=134.1.2.3.4 Rho=265
new line.line134 geometry=4wire length=0.1 units=mi bus1=134.1.2.3.4 bus2=135.1.2.3.4 Rho=265
new line.line135 geometry=4wire length=0.1 units=mi bus1=135.1.2.3.4 bus2=136.1.2.3.4 Rho=265
new line.line136 geometry=4wire length=0.1 units=mi bus1=136.1.2.3.4 bus2=137.1.2.3.4 Rho=265
new line.line137 geometry=4wire length=0.1 units=mi bus1=137.1.2.3.4 bus2=138.1.2.3.4 Rho=265
new line.line138 geometry=4wire length=0.1 units=mi bus1=138.1.2.3.4 bus2=139.1.2.3.4 Rho=265
new line.line139 geometry=4wire length=0.1 units=mi bus1=139.1.2.3.4 bus2=140.1.2.3.4 Rho=265
new line.line140 geometry=4wire length=0.1 units=mi bus1=140.1.2.3.4 bus2=141.1.2.3.4 Rho=265
new line.line141 geometry=4wire length=0.1 units=mi bus1=141.1.2.3.4 bus2=142.1.2.3.4 Rho=265
new line.line142 geometry=4wire length=0.1 units=mi bus1=142.1.2.3.4 bus2=143.1.2.3.4 Rho=265
new line.line143 geometry=4wire length=0.1 units=mi bus1=143.1.2.3.4 bus2=144.1.2.3.4 Rho=265
new line.line144 geometry=4wire length=0.1 units=mi bus1=144.1.2.3.4 bus2=145.1.2.3.4 Rho=265
new line.line145 geometry=4wire length=0.1 units=mi bus1=145.1.2.3.4 bus2=146.1.2.3.4 Rho=265
new line.line146 geometry=4wire length=0.1 units=mi bus1=146.1.2.3.4 bus2=147.1.2.3.4 Rho=265
new line.line147 geometry=4wire length=0.1 units=mi bus1=147.1.2.3.4 bus2=148.1.2.3.4 Rho=265
new line.line148 geometry=4wire length=0.1 units=mi bus1=148.1.2.3.4 bus2=149.1.2.3.4 Rho=265
new line.line149 geometry=4wire length=0.1 units=mi bus1=149.1.2.3.4 bus2=150.1.2.3.4 Rho=265
new line.line150 geometry=4wire length=0.1 units=mi bus1=150.1.2.3.4 bus2=151.1.2.3.4 Rho=265
new line.line151 geometry=4wire length=0.1 units=mi bus1=151.1.2.3.4 bus2=152.1.2.3.4 Rho=265
new line.line152 geometry=4wire length=0.1 units=mi bus1=152.1.2.3.4 bus2=153.1.2.3.4 Rho=265
new line.line153 geometry=4wire length=0.1 units=mi bus1=153.1.2.3.4 bus2=154.1.2.3.4 Rho=265
new line.line154 geometry=4wire length=0.1 units=mi bus1=154.1.2.3.4 bus2=155.1.2.3.4 Rho=265
new line.line155 geometry=4wire length=0.1 units=mi bus1=155.1.2.3.4 bus2=156.1.2.3.4 Rho=265
new line.line156 geometry=4wire length=0.1 units=mi bus1=156.1.2.3.4 bus2=157.1.2.3.4 Rho=265
new line.line157 geometry=4wire length=0.1 units=mi bus1=157.1.2.3.4 bus2=158.1.2.3.4 Rho=265
new line.line158 geometry=4wire length=0.1 units=mi bus1=158.1.2.3.4 bus2=159.1.2.3.4 Rho=265
new line.line159 geometry=4wire length=0.1 units=mi bus1=159.1.2.3.4 bus2=160.1.2.3.4 Rho=265
new line.line160 geometry=4wire length=0.1 units=mi bus1=160.1.2.3.4 bus2=161.1.2.3.4 Rho=265
new line.line161 geometry=4wire length=0.1 units=mi bus1=161.1.2.3.4 bus2=162.1.2.3.4 Rho=265
new line.line162 geometry=4wire length=0.1 units=mi bus1=162.1.2.3.4 bus2=163.1.2.3.4 Rho=265
new line.line163 geometry=4wire length=0.1 units=mi bus1=163.1.2.3.4 bus2=164.1.2.3.4 Rho=265
new line.line164 geometry=4wire length=0.1 units=mi bus1=164.1.2.3.4 bus2=165.1.2.3.4 Rho=265
new line.line165 geometry=4wire length=0.1 units=mi bus1=165.1.2.3.4 bus2=166.1.2.3.4 Rho=265
new line.line166 geometry=4wire length=0.1 units=mi bus1=166.1.2.3.4 bus2=167.1.2.3.4 Rho=265
new line.line167 geometry=4wire length=0.1 units=mi bus1=167.1.2.3.4 bus2=168.1.2.3.4 Rho=265
new line.line168 geometry=4wire length=0.1 units=mi bus1=168.1.2.3.4 bus2=169.1.2.3.4 Rho=265
new line.line169 geometry=4wire length=0.1 units=mi bus1=169.1.2.3.4 bus2=170.1.2.3.4 Rho=265
new line.line170 geometry=4wire length=0.1 units=mi bus1=170.1.2.3.4 bus2=171.1.2.3.4 Rho=265
new line.line171 geometry=4wire length=0.1 units=mi bus1=171.1.2.3.4 bus2=172.1.2.3.4 Rho=265
new line.line172 geometry=4wire length=0.1 units=mi bus1=172.1.2.3.4 bus2=173.1.2.3.4 Rho=265
new line.line173 geometry=4wire length=0.1 units=mi bus1=173.1.2.3.4 bus2=174.1.2.3.4 Rho=265
new line.line174 geometry=4wire length=0.1 units=mi bus1=174.1.2.3.4 bus2=175.1.2.3.4 Rho=265
new line.line175 geometry=4wire length=0.1 units=mi bus1=175.1.2.3.4 bus2=176.1.2.3.4 Rho=265
new line.line176 geometry=4wire length=0.1 units=mi bus1=176.1.2.3.4 bus2=177.1.2.3.4 Rho=265
new line.line177 geometry=4wire length=0.1 units=mi bus1=177.1.2.3.4 bus2=178.1.2.3.4 Rho=265
new line.line178 geometry=4wire length=0.1 units=mi bus1=178.1.2.3.4 bus2=179.1.2.3.4 Rho=265
new line.line179 geometry=4wire length=0.1 units=mi bus1=179.1.2.3.4 bus2=180.1.2.3.4 Rho=265
new line.line180 geometry=4wire length=0.1 units=mi bus1=180.1.2.3.4 bus2=181.1.2.3.4 Rho=265
new line.line181 geometry=4wire length=0.1 units=mi bus1=181.1.2.3.4 bus2=182.1.2.3.4 Rho=265
new line.line182 geometry=4wire length=0.1 units=mi bus1=182.1.2.3.4 bus2=183.1.2.3.4 Rho=265
new line.line183 geometry=4wire length=0.1 units=mi bus1=183.1.2.3.4 bus2=184.1.2.3.4 Rho=265
new line.line184 geometry=4wire length=0.1 units=mi bus1=184.1.2.3.4 bus2=185.1.2.3.4 Rho=265
new line.line185 geometry=4wire length=0.1 units=mi bus1=185.1.2.3.4 bus2=186.1.2.3.4 Rho=265
new line.line186 geometry=4wire length=0.1 units=mi bus1=186.1.2.3.4 bus2=187.1.2.3.4 Rho=265
new line.line187 geometry=4wire length=0.1 units=mi bus1=187.1.2.3.4 bus2=188.1.2.3.4 Rho=265
new line.line188 geometry=4wire length=0.1 units=mi bus1=188.1.2.3.4 bus2=189.1.2.3.4 Rho=265
new line.line189 geometry=4wire length=0.1 units=mi bus1=189.1.2.3.4 bus2=190.1.2.3.4 Rho=265
new line.line190 geometry=4wire length=0.1 units=mi bus1=190.1.2.3.4 bus2=191.1.2.3.4 Rho=265
new line.line191 geometry=4wire length=0.1 units=mi bus1=191.1.2.3.4 bus2=192.1.2.3.4 Rho=265
new line.line192 geometry=4wire length=0.1 units=mi bus1=192.1.2.3.4 bus2=193.1.2.3.4 Rho=265
new line.line193 geometry=4wire length=0.1 units=mi bus1=193.1.2.3.4 bus2=194.1.2.3.4 Rho=265
new line.line194 geometry=4wire length=0.1 units=mi bus1=194.1.2.3.4 bus2=195.1.2.3.4 Rho=265
new line.line195 geometry=4wire length=0.1 units=mi bus1=195.1.2.3.4 bus2=196.1.2.3.4 Rho=265
new line.line196 geometry=4wire length=0.1 units=mi bus1=196.1.2.3.4 bus2=197.1.2.3.4 Rho=265
new line.line197 geometry=4wire length=0.1 units=mi bus1=197.1.2.3.4 bus2=198.1.2.3.4 Rho=265
new line.line198 geometry=4wire length=0.1 units=mi bus1=198.1.2.3.4 bus2=199.1.2.3.4 Rho=265
new line.line199 geometry=4wire length=0.1 units=mi bus1=199.1.2.3.4 bus2=200.1.2.3.4 Rho=265
new line.line200 geometry=4wire length=0.1 units=mi bus1=200.1.2.3.4 bus2=201.1.2.3.4 Rho=265
new line.line201 geometry=4wire length=0.1 units=mi bus1=201.1.2.3.4 bus2=202.1.2.3.4 Rho=265
new line.line202 geometry=4wire length=0.1 units=mi bus1=202.1.2.3.4 bus2=203.1.2.3.4 Rho=265
new line.line203 geometry=4wire length=0.1 units=mi bus1=203.1.2.3.4 bus2=204.1.2.3.4 Rho=265
new line.line204 geometry=4wire length=0.1 units=mi bus1=204.1.2.3.4 bus2=205.1.2.3.4 Rho=265
new line.line205 geometry=4wire length=0.1 units=mi bus1=205.1.2.3.4 bus2=206.1.2.3.4 Rho=265
new line.line206 geometry=4wire length=0.1 units=mi bus1=206.1.2.3.4 bus2=207.1.2.3.4 Rho=265
new line.line207 geometry=4wire length=0.1 units=mi bus1=207.1.2.3.4 bus2=208.1.2.3.4 Rho=265
new line.line208 geometry=4wire length=0.1 units=mi bus1=208.1.2.3.4 bus2=209.1.2.3.4 Rho=265
new line.line209 geometry=4wire length=0.1 units=mi bus1=209.1.2.3.4 bus2=210.1.2.3.4 Rho=265
new line.line210 geometry=4wire length=0.1 units=mi bus1=210.1.2.3.4 bus2=211.1.2.3.4 Rho=265
new line.line211 geometry=4wire length=0.1 units=mi bus1=211.1.2.3.4 bus2=212.1.2.3.4 Rho=265
new line.line212 geometry=4wire length=0.1 units=mi bus1=212.1.2.3.4 bus2=213.1.2.3.4 Rho=265
new line.line213 geometry=4wire length=0.1 units=mi bus1=213.1.2.3.4 bus2=214.1.2.3.4 Rho=265
new line.line214 geometry=4wire length=0.1 units=mi bus1=214.1.2.3.4 bus2=215.1.2.3.4 Rho=265
new line.line215 geometry=4wire length=0.1 units=mi bus1=215.1.2.3.4 bus2=216.1.2.3.4 Rho=265
new line.line216 geometry=4wire length=0.1 units=mi bus1=216.1.2.3.4 bus2=217.1.2.3.4 Rho=265
new line.line217 geometry=4wire length=0.1 units=mi bus1=217.1.2.3.4 bus2=218.1.2.3.4 Rho=265
new line.line218 geometry=4wire length=0.1 units=mi bus1=218.1.2.3.4 bus2=219.1.2.3.4 Rho=265
new line.line219 geometry=4wire length=0.1 units=mi bus1=219.1.2.3.4 bus2=220.1.2.3.4 Rho=265
new line.line220 geometry=4wire length=0.1 units=mi bus1=220.1.2.3.4 bus2=221.1.2.3.4 Rho=265
new line.line221 geometry=4wire length=0.1 units=mi bus1=221.1.2.3.4 bus2=222.1.2.3.4 Rho=265
new line.line222 geometry=4wire length=0.1 units=mi bus1=222.1.2.3.4 bus2=223.1.2.3.4 Rho=265
new line.line223 geometry=4wire length=0.1 units=mi bus1=223.1.2.3.4 bus2=224.1.2.3.4 Rho=265
new line.line224 geometry=4wire length=0.1 units=mi bus1=224.1.2.3.4 bus2=225.1.2.3.4 Rho=265
new line.line225 geometry=4wire length=0.1 units=mi bus1=225.1.2.3.4 bus2=226.1.2.3.4 Rho=265
new line.line226 geometry=4wire length=0.1 units=mi bus1=226.1.2.3.4 bus2=227.1.2.3.4 Rho=265
new line.line227 geometry=4wire length=0.1 units=mi bus1=227.1.2.3.4 bus2=228.1.2.3.4 Rho=265
new line.line228 geometry=4wire length=0.1 units=mi bus1=228.1.2.3.4 bus2=229.1.2.3.4 Rho=265
new line.line229 geometry=4wire length=0.1 units=mi bus1=229.1.2.3.4 bus2=230.1.2.3.4 Rho=265
new line.line230 geometry=4wire length=0.1 units=mi bus1=230.1.2.3.4 bus2=231.1.2.3.4 Rho=265
new line.line231 geometry=4wire length=0.1 units=mi bus1=231.1.2.3.4 bus2=232.1.2.3.4 Rho=265
new line.line232 geometry=4wire length=0.1 units=mi bus1=232.1.2.3.4 bus2=233.1.2.3.4 Rho=265
new line.line233 geometry=4wire length=0.1 units=mi bus1=233.1.2.3.4 bus2=234.1.2.3.4 Rho=265
new line.line234 geometry=4wire length=0.1 units=mi bus1=234.1.2.3.4 bus2=235.1.2.3.4 Rho=265
new line.line235 geometry=4wire length=0.1 units=mi bus1=235.1.2.3.4 bus2=236.1.2.3.4 Rho=265
new line.line236 geometry=4wire length=0.1 units=mi bus1=236.1.2.3.4 bus2=237.1.2.3.4 Rho=265
!Transformer
new transformer.t1 xhl=10
~ wdg=1 bus=237.1.2.3.4 conn=delta kV=115 kVA=20000 %r=0.0 
~ wdg=2 bus=238.1.2.3.4 conn=wye kV=12  kVA=20000 %r=0.0
! **** DEFINE WIRE DATA 12kv line
new wiredata.conductor2 Runits=mi Rac=1.12 GMRunits=ft GMRac=0.00446  Radunits=in Diam=0.398 ! 1/0 ACSR
new wiredata.neutral2   Runits=mi Rac=1.65 GMRunits=ft GMRac=0.00504 Radunits=in Diam=0.325   ! #2 ACS 
! **** DEFINE LINE GEOMETRY 12kv line
new linegeometry.4wire2 nconds=4 nphases=3 reduce=no 
~ cond=1 wire=conductor units=ft x=0   h=38.41 
~ cond=2 wire=conductor units=ft x=-3.5  h=36.25 
~ cond=3 wire=conductor units=ft x=+3.5    h=36.25 
~ cond=4 wire=neutral     units=ft x=0.    h=31.75 
! ****12 KV LINE!
new line.line239 geometry=4wire length=0.0833333333 units=mi bus1=238.1.2.3.4 bus2=239.1.2.3.4 Rho=265
new line.line240 geometry=4wire length=0.0833333333 units=mi bus1=239.1.2.3.4 bus2=240.1.2.3.4 Rho=265
new line.line241 geometry=4wire length=0.0833333333 units=mi bus1=240.1.2.3.4 bus2=241.1.2.3.4 Rho=265
new line.line242 geometry=4wire length=0.0833333333 units=mi bus1=241.1.2.3.4 bus2=242.1.2.3.4 Rho=265
new line.line243 geometry=4wire length=0.0833333333 units=mi bus1=242.1.2.3.4 bus2=243.1.2.3.4 Rho=265
new line.line244 geometry=4wire length=0.0833333333 units=mi bus1=243.1.2.3.4 bus2=244.1.2.3.4 Rho=265
new line.line245 geometry=4wire length=0.0833333333 units=mi bus1=244.1.2.3.4 bus2=245.1.2.3.4 Rho=265
new line.line246 geometry=4wire length=0.0833333333 units=mi bus1=245.1.2.3.4 bus2=246.1.2.3.4 Rho=265
new line.line247 geometry=4wire length=0.0833333333 units=mi bus1=246.1.2.3.4 bus2=247.1.2.3.4 Rho=265
new line.line248 geometry=4wire length=0.0833333333 units=mi bus1=247.1.2.3.4 bus2=248.1.2.3.4 Rho=265
new line.line249 geometry=4wire length=0.0833333333 units=mi bus1=248.1.2.3.4 bus2=249.1.2.3.4 Rho=265
new line.line250 geometry=4wire length=0.0833333333 units=mi bus1=249.1.2.3.4 bus2=250.1.2.3.4 Rho=265
new line.line251 geometry=4wire length=0.0833333333 units=mi bus1=250.1.2.3.4 bus2=251.1.2.3.4 Rho=265
new line.line252 geometry=4wire length=0.0833333333 units=mi bus1=251.1.2.3.4 bus2=252.1.2.3.4 Rho=265
new line.line253 geometry=4wire length=0.0833333333 units=mi bus1=252.1.2.3.4 bus2=253.1.2.3.4 Rho=265
new line.line254 geometry=4wire length=0.0833333333 units=mi bus1=253.1.2.3.4 bus2=254.1.2.3.4 Rho=265
new line.line255 geometry=4wire length=0.0833333333 units=mi bus1=254.1.2.3.4 bus2=255.1.2.3.4 Rho=265
new line.line256 geometry=4wire length=0.0833333333 units=mi bus1=255.1.2.3.4 bus2=256.1.2.3.4 Rho=265
new line.line257 geometry=4wire length=0.0833333333 units=mi bus1=256.1.2.3.4 bus2=257.1.2.3.4 Rho=265
new line.line258 geometry=4wire length=0.0833333333 units=mi bus1=257.1.2.3.4 bus2=258.1.2.3.4 Rho=265
new line.line259 geometry=4wire length=0.0833333333 units=mi bus1=258.1.2.3.4 bus2=259.1.2.3.4 Rho=265
new line.line260 geometry=4wire length=0.0833333333 units=mi bus1=259.1.2.3.4 bus2=260.1.2.3.4 Rho=265
new line.line261 geometry=4wire length=0.0833333333 units=mi bus1=260.1.2.3.4 bus2=261.1.2.3.4 Rho=265
new line.line262 geometry=4wire length=0.0833333333 units=mi bus1=261.1.2.3.4 bus2=262.1.2.3.4 Rho=265
new line.line263 geometry=4wire length=0.0833333333 units=mi bus1=262.1.2.3.4 bus2=263.1.2.3.4 Rho=265
new line.line264 geometry=4wire length=0.0833333333 units=mi bus1=263.1.2.3.4 bus2=264.1.2.3.4 Rho=265
new line.line265 geometry=4wire length=0.0833333333 units=mi bus1=264.1.2.3.4 bus2=265.1.2.3.4 Rho=265
new line.line266 geometry=4wire length=0.0833333333 units=mi bus1=265.1.2.3.4 bus2=266.1.2.3.4 Rho=265
new line.line267 geometry=4wire length=0.0833333333 units=mi bus1=266.1.2.3.4 bus2=267.1.2.3.4 Rho=265
new line.line268 geometry=4wire length=0.0833333333 units=mi bus1=267.1.2.3.4 bus2=268.1.2.3.4 Rho=265
new line.line269 geometry=4wire length=0.0833333333 units=mi bus1=268.1.2.3.4 bus2=269.1.2.3.4 Rho=265
new line.line270 geometry=4wire length=0.0833333333 units=mi bus1=269.1.2.3.4 bus2=270.1.2.3.4 Rho=265
new line.line271 geometry=4wire length=0.0833333333 units=mi bus1=270.1.2.3.4 bus2=271.1.2.3.4 Rho=265
new line.line272 geometry=4wire length=0.0833333333 units=mi bus1=271.1.2.3.4 bus2=272.1.2.3.4 Rho=265
new line.line273 geometry=4wire length=0.0833333333 units=mi bus1=272.1.2.3.4 bus2=273.1.2.3.4 Rho=265
new line.line274 geometry=4wire length=0.0833333333 units=mi bus1=273.1.2.3.4 bus2=274.1.2.3.4 Rho=265
new line.line275 geometry=4wire length=0.0833333333 units=mi bus1=274.1.2.3.4 bus2=275.1.2.3.4 Rho=265
new line.line276 geometry=4wire length=0.0833333333 units=mi bus1=275.1.2.3.4 bus2=276.1.2.3.4 Rho=265
new line.line277 geometry=4wire length=0.0833333333 units=mi bus1=276.1.2.3.4 bus2=277.1.2.3.4 Rho=265
new line.line278 geometry=4wire length=0.0833333333 units=mi bus1=277.1.2.3.4 bus2=278.1.2.3.4 Rho=265
new line.line279 geometry=4wire length=0.0833333333 units=mi bus1=278.1.2.3.4 bus2=279.1.2.3.4 Rho=265
new line.line280 geometry=4wire length=0.0833333333 units=mi bus1=279.1.2.3.4 bus2=280.1.2.3.4 Rho=265
new line.line281 geometry=4wire length=0.0833333333 units=mi bus1=280.1.2.3.4 bus2=281.1.2.3.4 Rho=265
new line.line282 geometry=4wire length=0.0833333333 units=mi bus1=281.1.2.3.4 bus2=282.1.2.3.4 Rho=265
new line.line283 geometry=4wire length=0.0833333333 units=mi bus1=282.1.2.3.4 bus2=283.1.2.3.4 Rho=265
new line.line284 geometry=4wire length=0.0833333333 units=mi bus1=283.1.2.3.4 bus2=284.1.2.3.4 Rho=265
new line.line285 geometry=4wire length=0.0833333333 units=mi bus1=284.1.2.3.4 bus2=285.1.2.3.4 Rho=265
new line.line286 geometry=4wire length=0.0833333333 units=mi bus1=285.1.2.3.4 bus2=286.1.2.3.4 Rho=265
new line.line287 geometry=4wire length=0.0833333333 units=mi bus1=286.1.2.3.4 bus2=287.1.2.3.4 Rho=265
new line.line288 geometry=4wire length=0.0833333333 units=mi bus1=287.1.2.3.4 bus2=288.1.2.3.4 Rho=265
new line.line289 geometry=4wire length=0.0833333333 units=mi bus1=288.1.2.3.4 bus2=289.1.2.3.4 Rho=265
new line.line290 geometry=4wire length=0.0833333333 units=mi bus1=289.1.2.3.4 bus2=290.1.2.3.4 Rho=265
new line.line291 geometry=4wire length=0.0833333333 units=mi bus1=290.1.2.3.4 bus2=291.1.2.3.4 Rho=265
new line.line292 geometry=4wire length=0.0833333333 units=mi bus1=291.1.2.3.4 bus2=292.1.2.3.4 Rho=265
new line.line293 geometry=4wire length=0.0833333333 units=mi bus1=292.1.2.3.4 bus2=293.1.2.3.4 Rho=265
new line.line294 geometry=4wire length=0.0833333333 units=mi bus1=293.1.2.3.4 bus2=294.1.2.3.4 Rho=265
new line.line295 geometry=4wire length=0.0833333333 units=mi bus1=294.1.2.3.4 bus2=295.1.2.3.4 Rho=265
new line.line296 geometry=4wire length=0.0833333333 units=mi bus1=295.1.2.3.4 bus2=296.1.2.3.4 Rho=265